data_New_Crystal
_audit_creation_method         'Generated by mcu on 2020/05/02 - 16:26:16'
_cell_length_a        3.8166851764
_cell_length_b        3.8166851764
_cell_length_c        3.8166851764
_cell_angle_alpha       60.0000000000
_cell_angle_beta        60.0000000000
_cell_angle_gamma       60.0000000000

_symmetry_space_group_name_H-M     'Fd-3m'
_symmetry_Int_Tables_number        227
loop_
_symmetry_equiv_pos_as_xyz
+x,+y,+z
+x+y+z+1/4,-z+1/4,-x+1/4
+y,+x,-x-y-z
-z+1/4,+x+y+z+1/4,-y+1/4
+z,-x-y-z,+x
-x+1/4,-y+1/4,+x+y+z+1/4
-x-y-z,+z,+y
-y+1/4,-x+1/4,-z+1/4
+z,+y,-x-y-z
-x+1/4,-z+1/4,-y+1/4
-x-y-z,+x,+z
-y+1/4,+x+y+z+1/4,-x+1/4
+x,-x-y-z,+y
+x+y+z+1/4,-y+1/4,-z+1/4
+y,+z,+x
-z+1/4,-x+1/4,+x+y+z+1/4
-x-y-z,+y,+x
-y+1/4,-z+1/4,+x+y+z+1/4
+z,+x,+y
-x+1/4,+x+y+z+1/4,-z+1/4
+y,-x-y-z,+z
-z+1/4,-y+1/4,-x+1/4
+x,+z,-x-y-z
+x+y+z+1/4,-x+1/4,-y+1/4
-x+1/4,-y+1/4,-z+1/4
-x-y-z,+z,+x
-y+1/4,-x+1/4,+x+y+z+1/4
+z,-x-y-z,+y
-z+1/4,+x+y+z+1/4,-x+1/4
+x,+y,-x-y-z
+x+y+z+1/4,-z+1/4,-y+1/4
+y,+x,+z
-z+1/4,-y+1/4,+x+y+z+1/4
+x,+z,+y
+x+y+z+1/4,-x+1/4,-z+1/4
+y,-x-y-z,+x
-x+1/4,+x+y+z+1/4,-y+1/4
-x-y-z,+y,+z
-y+1/4,-z+1/4,-x+1/4
+z,+x,-x-y-z
+x+y+z+1/4,-y+1/4,-x+1/4
+y,+z,-x-y-z
-z+1/4,-x+1/4,-y+1/4
+x,-x-y-z,+z
-y+1/4,+x+y+z+1/4,-z+1/4
+z,+y,+x
-x+1/4,-z+1/4,+x+y+z+1/4
-x-y-z,+x,+y

loop_
_atom_site_label
_atom_site_type_symbol
_atom_site_fract_x
_atom_site_fract_y
_atom_site_fract_z
   Si   Si      0.0000000000      0.0000000000      0.0000000000
