data_New_Crystal
_audit_creation_method         'Generated by mcu on 2020/05/02 - 16:34:50'
_cell_length_a        3.1770280100
_cell_length_b        5.7281904881
_cell_length_c       30.2175175526
_cell_angle_alpha       89.4447863554
_cell_angle_beta        90.0000000000
_cell_angle_gamma       90.0000000000

_symmetry_space_group_name_H-M     'Pm'
_symmetry_Int_Tables_number        6
loop_
_symmetry_equiv_pos_as_xyz
+x,+y,+z
-x,+y,+z

loop_
_atom_site_label
_atom_site_type_symbol
_atom_site_fract_x
_atom_site_fract_y
_atom_site_fract_z
   Mo   Mo      0.5000000000      0.4188543100      0.5873016300
   Mo   Mo      0.0000000000      0.0233088600      0.5925355600
   S   S      0.5000000000      0.1358785900      0.6473859000
   S   S      0.0000000000      0.6405161500      0.6337728800
   S   S      0.0000000000      0.3062864100      0.5324524200
   S   S      0.5000000000      0.8016452900      0.5460646600
